
#======================================================================
# CRYSTAL DATA
#----------------------------------------------------------------------
data_VESTA_phase_1

_chemical_name_common                  'C4'
_cell_length_a                         37.009373
_cell_length_b                         37.009373
_cell_length_c                         7.803073
_cell_angle_alpha                      90.000000
_cell_angle_beta                       90.000000
_cell_angle_gamma                      120.000000
_cell_volume                           9255.923273
_space_group_name_H-M_alt              'P 1'
_space_group_IT_number                 1

loop_
_space_group_symop_operation_xyz
   'x, y, z'
   'x, y+0.0666667, z'
   'x, y+0.133333, z'
   'x, y+0.2, z'
   'x, y+0.266667, z'
   'x, y+1/3, z'
   'x, y+0.4, z'
   'x, y+0.466667, z'
   'x, y+0.533333, z'
   'x, y+0.6, z'
   'x, y+2/3, z'
   'x, y+0.733333, z'
   'x, y+0.8, z'
   'x, y+0.866667, z'
   'x, y+0.933333, z'
   'x+0.0666667, y, z'
   'x+0.0666667, y+0.0666667, z'
   'x+0.0666667, y+0.133333, z'
   'x+0.0666667, y+0.2, z'
   'x+0.0666667, y+0.266667, z'
   'x+0.0666667, y+1/3, z'
   'x+0.0666667, y+0.4, z'
   'x+0.0666667, y+0.466667, z'
   'x+0.0666667, y+0.533333, z'
   'x+0.0666667, y+0.6, z'
   'x+0.0666667, y+2/3, z'
   'x+0.0666667, y+0.733333, z'
   'x+0.0666667, y+0.8, z'
   'x+0.0666667, y+0.866667, z'
   'x+0.0666667, y+0.933333, z'
   'x+0.133333, y, z'
   'x+0.133333, y+0.0666667, z'
   'x+0.133333, y+0.133333, z'
   'x+0.133333, y+0.2, z'
   'x+0.133333, y+0.266667, z'
   'x+0.133333, y+1/3, z'
   'x+0.133333, y+0.4, z'
   'x+0.133333, y+0.466667, z'
   'x+0.133333, y+0.533333, z'
   'x+0.133333, y+0.6, z'
   'x+0.133333, y+2/3, z'
   'x+0.133333, y+0.733333, z'
   'x+0.133333, y+0.8, z'
   'x+0.133333, y+0.866667, z'
   'x+0.133333, y+0.933333, z'
   'x+0.2, y, z'
   'x+0.2, y+0.0666667, z'
   'x+0.2, y+0.133333, z'
   'x+0.2, y+0.2, z'
   'x+0.2, y+0.266667, z'
   'x+0.2, y+1/3, z'
   'x+0.2, y+0.4, z'
   'x+0.2, y+0.466667, z'
   'x+0.2, y+0.533333, z'
   'x+0.2, y+0.6, z'
   'x+0.2, y+2/3, z'
   'x+0.2, y+0.733333, z'
   'x+0.2, y+0.8, z'
   'x+0.2, y+0.866667, z'
   'x+0.2, y+0.933333, z'
   'x+0.266667, y, z'
   'x+0.266667, y+0.0666667, z'
   'x+0.266667, y+0.133333, z'
   'x+0.266667, y+0.2, z'
   'x+0.266667, y+0.266667, z'
   'x+0.266667, y+1/3, z'
   'x+0.266667, y+0.4, z'
   'x+0.266667, y+0.466667, z'
   'x+0.266667, y+0.533333, z'
   'x+0.266667, y+0.6, z'
   'x+0.266667, y+2/3, z'
   'x+0.266667, y+0.733333, z'
   'x+0.266667, y+0.8, z'
   'x+0.266667, y+0.866667, z'
   'x+0.266667, y+0.933333, z'
   'x+1/3, y, z'
   'x+1/3, y+0.0666667, z'
   'x+1/3, y+0.133333, z'
   'x+1/3, y+0.2, z'
   'x+1/3, y+0.266667, z'
   'x+1/3, y+1/3, z'
   'x+1/3, y+0.4, z'
   'x+1/3, y+0.466667, z'
   'x+1/3, y+0.533333, z'
   'x+1/3, y+0.6, z'
   'x+1/3, y+2/3, z'
   'x+1/3, y+0.733333, z'
   'x+1/3, y+0.8, z'
   'x+1/3, y+0.866667, z'
   'x+1/3, y+0.933333, z'
   'x+0.4, y, z'
   'x+0.4, y+0.0666667, z'
   'x+0.4, y+0.133333, z'
   'x+0.4, y+0.2, z'
   'x+0.4, y+0.266667, z'
   'x+0.4, y+1/3, z'
   'x+0.4, y+0.4, z'
   'x+0.4, y+0.466667, z'
   'x+0.4, y+0.533333, z'
   'x+0.4, y+0.6, z'
   'x+0.4, y+2/3, z'
   'x+0.4, y+0.733333, z'
   'x+0.4, y+0.8, z'
   'x+0.4, y+0.866667, z'
   'x+0.4, y+0.933333, z'
   'x+0.466667, y, z'
   'x+0.466667, y+0.0666667, z'
   'x+0.466667, y+0.133333, z'
   'x+0.466667, y+0.2, z'
   'x+0.466667, y+0.266667, z'
   'x+0.466667, y+1/3, z'
   'x+0.466667, y+0.4, z'
   'x+0.466667, y+0.466667, z'
   'x+0.466667, y+0.533333, z'
   'x+0.466667, y+0.6, z'
   'x+0.466667, y+2/3, z'
   'x+0.466667, y+0.733333, z'
   'x+0.466667, y+0.8, z'
   'x+0.466667, y+0.866667, z'
   'x+0.466667, y+0.933333, z'
   'x+0.533333, y, z'
   'x+0.533333, y+0.0666667, z'
   'x+0.533333, y+0.133333, z'
   'x+0.533333, y+0.2, z'
   'x+0.533333, y+0.266667, z'
   'x+0.533333, y+1/3, z'
   'x+0.533333, y+0.4, z'
   'x+0.533333, y+0.466667, z'
   'x+0.533333, y+0.533333, z'
   'x+0.533333, y+0.6, z'
   'x+0.533333, y+2/3, z'
   'x+0.533333, y+0.733333, z'
   'x+0.533333, y+0.8, z'
   'x+0.533333, y+0.866667, z'
   'x+0.533333, y+0.933333, z'
   'x+0.6, y, z'
   'x+0.6, y+0.0666667, z'
   'x+0.6, y+0.133333, z'
   'x+0.6, y+0.2, z'
   'x+0.6, y+0.266667, z'
   'x+0.6, y+1/3, z'
   'x+0.6, y+0.4, z'
   'x+0.6, y+0.466667, z'
   'x+0.6, y+0.533333, z'
   'x+0.6, y+0.6, z'
   'x+0.6, y+2/3, z'
   'x+0.6, y+0.733333, z'
   'x+0.6, y+0.8, z'
   'x+0.6, y+0.866667, z'
   'x+0.6, y+0.933333, z'
   'x+2/3, y, z'
   'x+2/3, y+0.0666667, z'
   'x+2/3, y+0.133333, z'
   'x+2/3, y+0.2, z'
   'x+2/3, y+0.266667, z'
   'x+2/3, y+1/3, z'
   'x+2/3, y+0.4, z'
   'x+2/3, y+0.466667, z'
   'x+2/3, y+0.533333, z'
   'x+2/3, y+0.6, z'
   'x+2/3, y+2/3, z'
   'x+2/3, y+0.733333, z'
   'x+2/3, y+0.8, z'
   'x+2/3, y+0.866667, z'
   'x+2/3, y+0.933333, z'
   'x+0.733333, y, z'
   'x+0.733333, y+0.0666667, z'
   'x+0.733333, y+0.133333, z'
   'x+0.733333, y+0.2, z'
   'x+0.733333, y+0.266667, z'
   'x+0.733333, y+1/3, z'
   'x+0.733333, y+0.4, z'
   'x+0.733333, y+0.466667, z'
   'x+0.733333, y+0.533333, z'
   'x+0.733333, y+0.6, z'
   'x+0.733333, y+2/3, z'
   'x+0.733333, y+0.733333, z'
   'x+0.733333, y+0.8, z'
   'x+0.733333, y+0.866667, z'
   'x+0.733333, y+0.933333, z'
   'x+0.8, y, z'
   'x+0.8, y+0.0666667, z'
   'x+0.8, y+0.133333, z'
   'x+0.8, y+0.2, z'
   'x+0.8, y+0.266667, z'
   'x+0.8, y+1/3, z'
   'x+0.8, y+0.4, z'
   'x+0.8, y+0.466667, z'
   'x+0.8, y+0.533333, z'
   'x+0.8, y+0.6, z'
   'x+0.8, y+2/3, z'
   'x+0.8, y+0.733333, z'
   'x+0.8, y+0.8, z'
   'x+0.8, y+0.866667, z'
   'x+0.8, y+0.933333, z'
   'x+0.866667, y, z'
   'x+0.866667, y+0.0666667, z'
   'x+0.866667, y+0.133333, z'
   'x+0.866667, y+0.2, z'
   'x+0.866667, y+0.266667, z'
   'x+0.866667, y+1/3, z'
   'x+0.866667, y+0.4, z'
   'x+0.866667, y+0.466667, z'
   'x+0.866667, y+0.533333, z'
   'x+0.866667, y+0.6, z'
   'x+0.866667, y+2/3, z'
   'x+0.866667, y+0.733333, z'
   'x+0.866667, y+0.8, z'
   'x+0.866667, y+0.866667, z'
   'x+0.866667, y+0.933333, z'
   'x+0.933333, y, z'
   'x+0.933333, y+0.0666667, z'
   'x+0.933333, y+0.133333, z'
   'x+0.933333, y+0.2, z'
   'x+0.933333, y+0.266667, z'
   'x+0.933333, y+1/3, z'
   'x+0.933333, y+0.4, z'
   'x+0.933333, y+0.466667, z'
   'x+0.933333, y+0.533333, z'
   'x+0.933333, y+0.6, z'
   'x+0.933333, y+2/3, z'
   'x+0.933333, y+0.733333, z'
   'x+0.933333, y+0.8, z'
   'x+0.933333, y+0.866667, z'
   'x+0.933333, y+0.933333, z'

loop_
   _atom_site_label
   _atom_site_occupancy
   _atom_site_fract_x
   _atom_site_fract_y
   _atom_site_fract_z
   _atom_site_adp_type
   _atom_site_U_iso_or_equiv
   _atom_site_type_symbol
   C0         1.0     0.000000     0.000000     0.250000    Uiso  ? C
   C1         1.0     0.000000     0.000000     0.750000    Uiso  ? C
   C2         1.0     0.022222     0.044444     0.250000    Uiso  ? C
   C3         1.0     0.044444     0.022222     0.750000    Uiso  ? C
