
#======================================================================
# CRYSTAL DATA
#----------------------------------------------------------------------
data_VESTA_phase_1

_chemical_name_common                  'Si6 C6'
_cell_length_a                         21.536348
_cell_length_b                         21.536348
_cell_length_c                         15.098085
_cell_angle_alpha                      90.000000
_cell_angle_beta                       90.000000
_cell_angle_gamma                      120.000000
_cell_volume                           6064.522947
_space_group_name_H-M_alt              'P 1'
_space_group_IT_number                 1

loop_
_space_group_symop_operation_xyz
   'x, y, z'
   'x, y+0.142857, z'
   'x, y+0.285714, z'
   'x, y+0.428571, z'
   'x, y+0.571429, z'
   'x, y+0.714286, z'
   'x, y+0.857143, z'
   'x+0.142857, y, z'
   'x+0.142857, y+0.142857, z'
   'x+0.142857, y+0.285714, z'
   'x+0.142857, y+0.428571, z'
   'x+0.142857, y+0.571429, z'
   'x+0.142857, y+0.714286, z'
   'x+0.142857, y+0.857143, z'
   'x+0.285714, y, z'
   'x+0.285714, y+0.142857, z'
   'x+0.285714, y+0.285714, z'
   'x+0.285714, y+0.428571, z'
   'x+0.285714, y+0.571429, z'
   'x+0.285714, y+0.714286, z'
   'x+0.285714, y+0.857143, z'
   'x+0.428571, y, z'
   'x+0.428571, y+0.142857, z'
   'x+0.428571, y+0.285714, z'
   'x+0.428571, y+0.428571, z'
   'x+0.428571, y+0.571429, z'
   'x+0.428571, y+0.714286, z'
   'x+0.428571, y+0.857143, z'
   'x+0.571429, y, z'
   'x+0.571429, y+0.142857, z'
   'x+0.571429, y+0.285714, z'
   'x+0.571429, y+0.428571, z'
   'x+0.571429, y+0.571429, z'
   'x+0.571429, y+0.714286, z'
   'x+0.571429, y+0.857143, z'
   'x+0.714286, y, z'
   'x+0.714286, y+0.142857, z'
   'x+0.714286, y+0.285714, z'
   'x+0.714286, y+0.428571, z'
   'x+0.714286, y+0.571429, z'
   'x+0.714286, y+0.714286, z'
   'x+0.714286, y+0.857143, z'
   'x+0.857143, y, z'
   'x+0.857143, y+0.142857, z'
   'x+0.857143, y+0.285714, z'
   'x+0.857143, y+0.428571, z'
   'x+0.857143, y+0.571429, z'
   'x+0.857143, y+0.714286, z'
   'x+0.857143, y+0.857143, z'

loop_
   _atom_site_label
   _atom_site_occupancy
   _atom_site_fract_x
   _atom_site_fract_y
   _atom_site_fract_z
   _atom_site_adp_type
   _atom_site_U_iso_or_equiv
   _atom_site_type_symbol
   Si0        1.0     0.047619     0.095238     0.832986    Uiso  ? Si
   Si1        1.0     0.095238     0.047619     0.332986    Uiso  ? Si
   Si2        1.0     0.095238     0.047619     0.666501    Uiso  ? Si
   Si3        1.0     0.047619     0.095238     0.166501    Uiso  ? Si
   Si4        1.0     0.000000     0.000000     0.499729    Uiso  ? Si
   Si5        1.0     0.000000     0.000000     0.999729    Uiso  ? Si
   C6         1.0     0.000000     0.000000     0.874366    Uiso  ? C
   C7         1.0     0.000000     0.000000     0.374366    Uiso  ? C
   C8         1.0     0.047619     0.095238     0.707997    Uiso  ? C
   C9         1.0     0.095238     0.047619     0.207997    Uiso  ? C
   C10        1.0     0.095238     0.047619     0.541522    Uiso  ? C
   C11        1.0     0.047619     0.095238     0.041522    Uiso  ? C
